*SPEF "IEEE 1481-1998"
*DESIGN "adder_2bit"
*DATE "Sun Mar 30 19:31:54 2025"
*VENDOR "Cadence Design Systems, Inc."
*PROGRAM "Innovus"
*VERSION "17.12-s095_1"
*DESIGN_FLOW "PIN_CAP NONE" "NAME_SCOPE LOCAL"
*DIVIDER /
*DELIMITER :
*BUS_DELIMITER []
*T_UNIT 1 NS
*C_UNIT 1 PF
*R_UNIT 1 OHM
*L_UNIT 1 HENRY

// MMMC spef file for corner 'RC_corner_25'

*NAME_MAP

*1 a[1]
*2 a[0]
*3 b[1]
*4 b[0]
*5 sum[1]
*6 sum[0]
*7 clk
*8 cout
*9 n9
*10 n10
*11 n11
*12 n12
*13 n13
*14 n14
*15 n15
*16 n18
*17 n19
*18 FE_RC_1_0
*19 FE_RC_0_0
*20 cout_reg
*21 sum_reg_1_
*22 sum_reg_0_
*23 U14
*24 U15
*25 U16
*26 U17
*27 U18
*28 U23
*29 U24


*PORTS

*7 I *C 0 0.72
*1 I *C 0 8.604
*2 I *C 0 4.572
*3 I *C 0 16.452
*4 I *C 0 12.42
*5 O *C 18.144 0.72
*6 O *C 18.144 8.604
*8 O *C 18.144 16.452


*D_NET *1 0.000257611

*CONN
*P *1 I *C 0 8.604 *L 0
*I *26:C I *C 8.424 8.1 *L 0.000368 *D NAND3xp33_ASAP7_75t_R
*I *19:A I *C 5.184 10.26 *L 0.000774 *D XOR2xp5_ASAP7_75t_R
*I *18:A2 I *C 7.992 10.26 *L 0.000422 *D AOI21xp5_ASAP7_75t_R

*CAP
1 *26:C 2.88486e-05
2 *18:A2 1.84774e-06
3 *19:A 8.23736e-05
4 *1 1.57356e-05
5 *1:4 5.26309e-05
6 *1:5 7.61747e-05

*RES
1 *1:5 *1 40.8864
2 *19:A *1:5 89.5342
3 *1:4 *19:A 40.8007
4 *18:A2 *1:4 11.3622
5 *26:C *1:4 66.9583
*END

*D_NET *2 0.000434995

*CONN
*P *2 I *C 0 4.572 *L 0
*I *29:A1 I *C 5.976 6.444 *L 0.000415 *D A2O1A1Ixp33_ASAP7_75t_R
*I *28:B I *C 5.976 8.1 *L 0.000369 *D NAND3xp33_ASAP7_75t_R
*I *26:B I *C 8.568 8.1 *L 0.000369 *D NAND3xp33_ASAP7_75t_R
*I *25:B I *C 11.448 10.26 *L 0.000369 *D NAND3xp33_ASAP7_75t_R
*I *24:B I *C 10.008 6.444 *L 0.000379 *D NAND2xp5_ASAP7_75t_R
*I *23:A2 I *C 11.592 7.812 *L 0.000305 *D OAI21xp33_ASAP7_75t_R

*CAP
1 *23:A2 1.60933e-06
2 *25:B 2.61068e-05
3 *24:B 1.5676e-05
4 *26:B 1.72853e-06
5 *28:B 2.68221e-06
6 *29:A1 1.49012e-06
7 *2 7.80225e-05
8 *2:7 4.91142e-05
9 *2:8 5.43594e-05
10 *2:9 4.55379e-05
11 *2:10 5.41806e-05
12 *2:11 0.000104487

*RES
1 *2:11 *2 153.803
2 *29:A1 *2:11 11.3622
3 *28:B *2:10 12.5169
4 *2:10 *2:11 44.6615
5 *2:9 *2:10 39.052
6 *26:B *2:9 11.3622
7 *24:B *2:8 49.7735
8 *2:8 *2:9 25.6045
9 *25:B *2:7 70.6937
10 *23:A2 *2:7 11.1566
11 *2:7 *2:8 21.937
*END

*D_NET *3 0.000354648

*CONN
*P *3 I *C 0 16.452 *L 0
*I *25:C I *C 11.592 10.26 *L 0.000368 *D NAND3xp33_ASAP7_75t_R
*I *19:B I *C 5.472 10.116 *L 0.000758 *D XOR2xp5_ASAP7_75t_R
*I *18:A1 I *C 8.424 10.116 *L 0.000429 *D AOI21xp5_ASAP7_75t_R

*CAP
1 *25:C 3.8445e-05
2 *18:A1 1.19209e-06
3 *3 0.000103056
4 *19:B 1.54972e-06
5 *3:4 7.27177e-05
6 *3:5 0.000137687

*RES
1 *19:B *3:5 11.3622
2 *3:5 *3 222.263
3 *18:A1 *3:4 11.3622
4 *3:4 *3:5 45.7758
5 *25:C *3:4 64.473
*END

*D_NET *4 0.000529051

*CONN
*P *4 I *C 0 12.42 *L 0
*I *29:A2 I *C 6.264 6.444 *L 0.000414 *D A2O1A1Ixp33_ASAP7_75t_R
*I *28:A I *C 6.264 7.956 *L 0.000371 *D NAND3xp33_ASAP7_75t_R
*I *26:A I *C 8.856 7.956 *L 0.000371 *D NAND3xp33_ASAP7_75t_R
*I *25:A I *C 11.16 10.116 *L 0.000371 *D NAND3xp33_ASAP7_75t_R
*I *24:A I *C 9.72 6.3 *L 0.000378 *D NAND2xp5_ASAP7_75t_R
*I *23:A1 I *C 12.024 7.956 *L 0.000326 *D OAI21xp33_ASAP7_75t_R

*CAP
1 *23:A1 1.34706e-05
2 *25:A 2.96235e-05
3 *24:A 7.15256e-06
4 *26:A 1.60933e-06
5 *28:A 1.54972e-06
6 *29:A2 3.42131e-05
7 *4 0.000103831
8 *4:7 7.4327e-05
9 *4:8 3.8445e-05
10 *4:9 4.24385e-05
11 *4:10 1.12057e-05
12 *4:11 3.21865e-05
13 *4:12 0.000138998

*RES
1 *4:12 *4 198.357
2 *29:A2 *4:12 56.0237
3 *28:A *4:11 11.3622
4 *4:11 *4:12 1.15454
5 *4:10 *4:9 16.5238
6 *4:9 *4:8 20.1914
7 *4:8 *4:11 41.497
8 *26:A *4:8 11.3622
9 *24:A *4:10 24.7418
10 *4:7 *4:9 49.5313
11 *25:A *4:7 75.6516
12 *23:A1 *4:7 25.9643
*END

*D_NET *5 0.000205398

*CONN
*P *5 O *C 18.144 0.72 *L 1e-05
*I *21:QN O *C 12.024 5.94 *L 0 *D DFFHQNx1_ASAP7_75t_R

*CAP
1 *5 5.19752e-05
2 *21:QN 5.07236e-05
3 *5:2 0.000102699

*RES
1 *5:2 *21:QN 111.647
2 *5 *5:2 99.2941
*END

*D_NET *6 0.000128627

*CONN
*P *6 O *C 18.144 8.604 *L 1e-05
*I *22:QN O *C 11.808 8.46 *L 0 *D DFFHQNx1_ASAP7_75t_R

*CAP
1 *6 6.31213e-05
2 *22:QN 1.19209e-06
3 *6:2 6.43134e-05

*RES
1 *6:2 *22:QN 11.3622
2 *6 *6:2 106.018
*END

*D_NET *7 0.000368595

*CONN
*P *7 I *C 0 0.72 *L 0
*I *22:CLK I *C 7.92 8.604 *L 0.00033 *D DFFHQNx1_ASAP7_75t_R
*I *21:CLK I *C 8.136 5.796 *L 0.00033 *D DFFHQNx1_ASAP7_75t_R
*I *20:CLK I *C 7.92 10.764 *L 0.00033 *D DFFHQNx1_ASAP7_75t_R

*CAP
1 *21:CLK 8.70228e-06
2 *20:CLK 2.61068e-05
3 *22:CLK 5.1856e-06
4 *7 0.0001176
5 *7:4 5.79953e-05
6 *7:5 0.000153005

*RES
1 *7:5 *7 222.787
2 *7:4 *7:5 50.6657
3 *22:CLK *7:4 24.2187
4 *20:CLK *7:4 58.9919
5 *21:CLK *7:5 26.6637
*END

*D_NET *8 0.000200272

*CONN
*P *8 O *C 18.144 16.452 *L 1e-05
*I *20:QN O *C 11.808 10.62 *L 0 *D DFFHQNx1_ASAP7_75t_R

*CAP
1 *8 4.59552e-05
2 *20:QN 5.41806e-05
3 *8:2 0.000100136

*RES
1 *8:2 *20:QN 120.678
2 *8 *8:2 104.184
*END

*D_NET *9 5.4121e-05

*CONN
*I *29:Y O *C 6.84 6.3 *L 0 *D A2O1A1Ixp33_ASAP7_75t_R
*I *21:D I *C 8.856 5.94 *L 0.000429 *D DFFHQNx1_ASAP7_75t_R

*CAP
1 *29:Y 2.70605e-05
2 *21:D 2.70605e-05

*RES
1 *21:D *29:Y 83.2106
*END

*D_NET *10 2.61068e-05

*CONN
*I *20:D I *C 8.64 10.62 *L 0.000429 *D DFFHQNx1_ASAP7_75t_R
*I *18:Y O *C 8.856 10.26 *L 0 *D AOI21xp5_ASAP7_75t_R

*CAP
1 *20:D 9.47714e-06
2 *18:Y 3.57628e-06
3 *10:2 1.30534e-05

*RES
1 *10:2 *18:Y 12.5169
2 *20:D *10:2 40.1992
*END

*D_NET *11 7.90358e-05

*CONN
*I *23:Y O *C 11.16 7.956 *L 0 *D OAI21xp33_ASAP7_75t_R
*I *22:D I *C 8.64 8.46 *L 0.000429 *D DFFHQNx1_ASAP7_75t_R

*CAP
1 *23:Y 1.80602e-05
2 *22:D 1.2219e-05
3 *11:2 2.72989e-05
4 *11:3 2.14577e-05

*RES
1 *22:D *11:3 24.7418
2 *11:2 *23:Y 38.1893
3 *11:3 *11:2 31.2819
*END

*D_NET *12 6.6042e-05

*CONN
*I *24:Y O *C 10.296 6.3 *L 0 *D NAND2xp5_ASAP7_75t_R
*I *23:B I *C 11.448 7.812 *L 0.000305 *D OAI21xp33_ASAP7_75t_R

*CAP
1 *23:B 1.98483e-05
2 *24:Y 1.31726e-05
3 *12:2 3.3021e-05

*RES
1 *12:2 *24:Y 43.7988
2 *23:B *12:2 24.7418
*END

*D_NET *13 6.23465e-05

*CONN
*I *27:B I *C 9.792 10.116 *L 0.000379 *D NAND2xp5_ASAP7_75t_R
*I *26:Y O *C 9 8.1 *L 0 *D NAND3xp33_ASAP7_75t_R

*CAP
1 *26:Y 3.11732e-05
2 *27:B 3.11732e-05

*RES
1 *27:B *26:Y 81.9881
*END

*D_NET *14 2.36034e-05

*CONN
*I *27:A I *C 10.08 10.26 *L 0.000378 *D NAND2xp5_ASAP7_75t_R
*I *25:Y O *C 11.016 10.26 *L 0 *D NAND3xp33_ASAP7_75t_R

*CAP
1 *25:Y 1.49012e-06
2 *27:A 1.03116e-05
3 *14:2 1.18017e-05

*RES
1 *27:A *14:2 24.1306
2 *14:2 *25:Y 11.3622
*END

*D_NET *15 2.75373e-05

*CONN
*I *27:Y O *C 9.504 10.26 *L 0 *D NAND2xp5_ASAP7_75t_R
*I *18:B I *C 8.568 10.116 *L 0.000374 *D AOI21xp5_ASAP7_75t_R

*CAP
1 *27:Y 2.08616e-06
2 *18:B 1.16825e-05
3 *15:2 1.37687e-05

*RES
1 *18:B *15:2 24.1306
2 *15:2 *27:Y 11.3622
*END

*D_NET *16 3.40939e-05

*CONN
*I *29:C I *C 6.696 6.588 *L 0.000379 *D A2O1A1Ixp33_ASAP7_75t_R
*I *28:Y O *C 6.408 8.1 *L 0 *D NAND3xp33_ASAP7_75t_R

*CAP
1 *28:Y 1.70469e-05
2 *29:C 1.70469e-05

*RES
1 *29:C *28:Y 59.8453
*END

*D_NET *17 0.000121713

*CONN
*I *29:B I *C 6.408 6.444 *L 0.000368 *D A2O1A1Ixp33_ASAP7_75t_R
*I *28:C I *C 5.832 8.1 *L 0.000368 *D NAND3xp33_ASAP7_75t_R
*I *19:Y O *C 6.912 10.26 *L 0 *D XOR2xp5_ASAP7_75t_R

*CAP
1 *29:B 2.07424e-05
2 *19:Y 1.3113e-05
3 *28:C 5.06639e-06
4 *17:3 3.50475e-05
5 *17:4 4.77433e-05

*RES
1 *28:C *17:4 23.4696
2 *17:4 *17:3 44.6414
3 *17:3 *19:Y 25.9643
4 *29:B *17:4 40.0432
*END

